<?xml version="1.0" encoding="UTF-8"?>

<!-- generated on 2025-11-14 12:54:02 by Eclipse SUMO netedit Version 1.24.0
-->

<routes xmlns:xsi="http://www.w3.org/2001/XMLSchema-instance" xsi:noNamespaceSchemaLocation="http://sumo.dlr.de/xsd/routes_file.xsd">
    <!-- Vehicles, persons and containers (sorted by depart) -->
    <flow id="f_4" begin="0.00" color="white" from="E18" to="E17" via="E12 E13 E16 E20 E21 E19 E14 E15" end="3600.00" vehsPerHour="1800"/>
</routes>
