<?xml version="1.0" encoding="UTF-8"?>

<!-- generated on 2025-11-14 12:54:02 by Eclipse SUMO sumo Version 1.24.0
-->

<sumoConfiguration xmlns:xsi="http://www.w3.org/2001/XMLSchema-instance" xsi:noNamespaceSchemaLocation="http://sumo.dlr.de/xsd/sumoConfiguration.xsd">

    <input>
        <net-file value="2.net.xml"/>
        <route-files value="2.rou.xml,1.rou.xml"/>
    </input>

</sumoConfiguration>
