<?xml version="1.0" encoding="UTF-8"?>

<!-- generated on 2025-11-20 09:20:51 by Eclipse SUMO netedit Version 1.24.0
<neteditConfiguration xmlns:xsi="http://www.w3.org/2001/XMLSchema-instance" xsi:noNamespaceSchemaLocation="http://sumo.dlr.de/xsd/neteditConfiguration.xsd">

    <input>
        <sumo-net-file value="C:\Users\liuzz\Documents\sumolernenbescguss\test5.net.xml"/>
    </input>

    <output>
        <output-file value="C:\Users\liuzz\Documents\sumolernenbescguss\test5.net.xml"/>
    </output>

    <processing>
        <offset.disable-normalization value="true"/>
    </processing>

    <junctions>
        <no-turnarounds value="true"/>
    </junctions>

    <netedit>
        <new-network value="false"/>
    </netedit>

</neteditConfiguration>
-->

<net version="1.20" junctionCornerDetail="5" limitTurnSpeed="5.50" xmlns:xsi="http://www.w3.org/2001/XMLSchema-instance" xsi:noNamespaceSchemaLocation="http://sumo.dlr.de/xsd/net_file.xsd">

    <location netOffset="0.00,0.00" convBoundary="-85.98,-25.49,37.93,28.41" origBoundary="10000000000.00,10000000000.00,-10000000000.00,-10000000000.00" projParameter="!"/>

    <edge id=":J0_0" function="internal">
        <lane id=":J0_0_0" index="0" speed="4.09" length="4.61" shape="-79.82,24.11 -80.68,25.29 -80.77,26.13 -80.09,26.63 -78.64,26.80"/>
    </edge>
    <edge id=":J1_0" function="internal">
        <lane id=":J1_0_0" index="0" speed="3.90" length="2.56" shape="34.16,26.58 34.85,26.48 35.34,26.18 35.65,25.69 35.75,25.00"/>
    </edge>
    <edge id=":J2_0" function="internal">
        <lane id=":J2_0_0" index="0" speed="3.90" length="2.60" shape="36.29,-22.26 36.20,-22.97 35.90,-23.48 35.40,-23.78 34.69,-23.88"/>
    </edge>
    <edge id=":J3_0" function="internal">
        <lane id=":J3_0_0" index="0" speed="4.16" length="1.32" shape="-34.82,-23.77 -35.16,-23.74 -35.46,-23.64 -35.74,-23.48 -35.99,-23.25"/>
    </edge>

    <edge id="E0" from="J0" to="J1" priority="-1">
        <lane id="E0_0" index="0" speed="13.89" length="112.80" shape="-78.64,26.80 34.16,26.58"/>
    </edge>
    <edge id="E1" from="J1" to="J2" priority="-1">
        <lane id="E1_0" index="0" speed="13.89" length="47.26" shape="35.75,25.00 36.29,-22.26"/>
    </edge>
    <edge id="E2" from="J2" to="J3" priority="-1">
        <lane id="E2_0" index="0" speed="13.89" length="69.51" shape="34.69,-23.88 -34.82,-23.77"/>
    </edge>
    <edge id="E3" from="J3" to="J0" priority="-1">
        <lane id="E3_0" index="0" speed="13.89" length="64.53" shape="-35.99,-23.25 -79.82,24.11"/>
    </edge>

    <junction id="J0" type="priority" x="-85.98" y="28.41" incLanes="E3_0" intLanes=":J0_0_0" shape="-78.64,28.40 -78.64,25.20 -80.99,23.03 -82.31,24.67 -82.94,26.02 -82.89,27.06 -82.16,27.81 -80.74,28.25">
        <request index="0" response="0" foes="0" cont="0"/>
    </junction>
    <junction id="J1" type="priority" x="37.32" y="28.17" incLanes="E0_0" intLanes=":J1_0_0" shape="37.35,25.01 34.15,24.98 34.16,28.18 35.92,27.82 36.54,27.38 36.98,26.77 37.25,25.98">
        <request index="0" response="0" foes="0" cont="0"/>
    </junction>
    <junction id="J2" type="priority" x="37.93" y="-25.49" incLanes="E1_0" intLanes=":J2_0_0" shape="34.68,-25.48 34.69,-22.28 37.89,-22.25 37.55,-24.05 37.11,-24.68 36.48,-25.13 35.67,-25.39">
        <request index="0" response="0" foes="0" cont="0"/>
    </junction>
    <junction id="J3" type="priority" x="-36.22" y="-25.37" incLanes="E2_0" intLanes=":J3_0_0" shape="-34.82,-22.17 -34.82,-25.37 -35.70,-25.25 -36.11,-25.11 -36.49,-24.91 -36.84,-24.65 -37.17,-24.34">
        <request index="0" response="0" foes="0" cont="0"/>
    </junction>

    <connection from="E0" to="E1" fromLane="0" toLane="0" via=":J1_0_0" dir="r" state="M"/>
    <connection from="E1" to="E2" fromLane="0" toLane="0" via=":J2_0_0" dir="r" state="M"/>
    <connection from="E2" to="E3" fromLane="0" toLane="0" via=":J3_0_0" dir="r" state="M"/>
    <connection from="E3" to="E0" fromLane="0" toLane="0" via=":J0_0_0" dir="r" state="M"/>

    <connection from=":J0_0" to="E0" fromLane="0" toLane="0" dir="r" state="M"/>
    <connection from=":J1_0" to="E1" fromLane="0" toLane="0" dir="r" state="M"/>
    <connection from=":J2_0" to="E2" fromLane="0" toLane="0" dir="r" state="M"/>
    <connection from=":J3_0" to="E3" fromLane="0" toLane="0" dir="r" state="M"/>

</net>
