<?xml version="1.0" encoding="UTF-8"?>

<!-- generated on 2025-11-19 14:33:12 by Eclipse SUMO netedit Version 1.24.0
<neteditConfiguration xmlns:xsi="http://www.w3.org/2001/XMLSchema-instance" xsi:noNamespaceSchemaLocation="http://sumo.dlr.de/xsd/neteditConfiguration.xsd">

    <input>
        <sumocfg-file value="C:\Users\liuzz\Documents\sumolernenbescguss\test4.sumocfg"/>
        <sumo-net-file value="C:\Users\liuzz\Documents\sumolernenbescguss\test4.net.xml"/>
    </input>

    <output>
        <output-file value="C:\Users\liuzz\Documents\sumolernenbescguss\test4.net.xml"/>
    </output>

    <processing>
        <offset.disable-normalization value="true"/>
    </processing>

    <junctions>
        <no-turnarounds value="true"/>
    </junctions>

    <netedit>
        <new-network value="false"/>
    </netedit>

</neteditConfiguration>
-->

<net version="1.20" junctionCornerDetail="5" limitTurnSpeed="5.50" xmlns:xsi="http://www.w3.org/2001/XMLSchema-instance" xsi:noNamespaceSchemaLocation="http://sumo.dlr.de/xsd/net_file.xsd">

    <location netOffset="0.00,0.00" convBoundary="-72.20,4.27,22.07,4.76" origBoundary="10000000000.00,10000000000.00,-10000000000.00,-10000000000.00" projParameter="!"/>

    <edge id="E0" from="J0" to="J1" priority="-1">
        <lane id="E0_0" index="0" speed="13.89" length="94.27" shape="-72.20,3.16 22.06,2.67"/>
    </edge>

    <junction id="J0" type="dead_end" x="-72.20" y="4.76" incLanes="" intLanes="" shape="-72.20,4.76 -72.21,1.56"/>
    <junction id="J1" type="dead_end" x="22.07" y="4.27" incLanes="E0_0" intLanes="" shape="22.06,1.07 22.07,4.27"/>

</net>
